/*---------------------------------------------------------------------------*\
| =========                 |                                                 |
| \\      /  F ield         | OpenFOAM: The Open Source CFD Toolbox           |
|  \\    /   O peration     | Version:  plus                                   |
|   \\  /    A nd           | Web:      www.OpenFOAM.com               |
|    \\/     M anipulation  |                                                 |
\*---------------------------------------------------------------------------*/

FoamFile
{
    version         2.0;
    format          ascii;
    class           dictionary;
    object          fvSolution;
}

// * * * * * * * * * * * * * * * * * * * * * * * * * * * * * * * * * * * * * //

solvers
{ 
   A
    {
        solver BiCGStab;
        preconditioner Cholesky;

        tolerance 1e-07;
        relTol  0.0;

        minIter 1;
        maxIter 500;
    }
   
}


// ************************************************************************* //
