/*--------------------------------*- C++ -*----------------------------------*\
| =========                 |                                                 |
| \\      /  F ield         | OpenFOAM: The Open Source CFD Toolbox           |
|  \\    /   O peration     | Version:  plus                                  |
|   \\  /    A nd           | Web:      www.OpenFOAM.com                      |
|    \\/     M anipulation  |                                                 |
\*---------------------------------------------------------------------------*/
FoamFile
{
    version     2.0;
    format      ascii;
    class       dictionary;
    object      blockMeshDict;
}
// * * * * * * * * * * * * * * * * * * * * * * * * * * * * * * * * * * * * * //

// see https://cfd.direct/openfoam/user-guide/basic-file-format/

convertToMeters 1;


vertices
(
(0 0 0) //v0
(0.19981 0.008724 0.0) //v1
(0.19981 0.008724 0.3) //v2
(0.0 0.0 0.3) //v3
(0.19981 -0.008724 0.0) //v4
(0.19981 -0.008724 0.3) //v5
);

blocks
(
hex (0 4 1 0 3 5 2 3)(400 1 600) simpleGrading (1 1 1)
);
 
edges
(
);
 
boundary
(
     front
     { 
           type wedge;
           faces  
           (
               (0 1 2 3)
           );
      }
     back
     { 
           type wedge;
           faces  
           (
               (0 3 5 4)
           );
      }
     sideWall
     { 
           type wall;
           faces  
           (
               (1 4 5 2)
           );
      }
     inlet
     { 
           type patch;
           faces  
           (
               (0 4 1 0)
           );
      }
     outlet
     { 
           type patch;
           faces  
           (
               (3 5 2 3)
           );
      }
     axis
     { 
           type empty;
           faces  
           (
               (0 3 3 0)
           );
      }
);
 
mergePatchPairs
(
);

// ************************************************************************* //
